Version 4
SHEET 1 1256 680
WIRE -240 -256 -240 -288
WIRE -112 -192 -112 -224
WIRE -304 -160 -304 -176
WIRE -240 -160 -240 -176
WIRE -240 -160 -304 -160
WIRE -432 -80 -432 -128
WIRE -432 -80 -576 -80
WIRE -336 -80 -432 -80
WIRE -576 -48 -576 -80
WIRE -336 -48 -336 -80
WIRE 96 -48 -16 -48
WIRE 272 -32 160 -32
WIRE 352 -32 272 -32
WIRE 528 -32 432 -32
WIRE 560 -32 528 -32
WIRE 672 -32 640 -32
WIRE 96 -16 48 -16
WIRE 272 -16 272 -32
WIRE -16 0 -16 -48
WIRE 48 64 48 -16
WIRE 272 64 48 64
WIRE 528 80 528 -32
WIRE 576 80 528 80
WIRE -576 96 -576 32
WIRE -544 96 -576 96
WIRE -336 96 -336 32
WIRE -336 96 -384 96
WIRE 672 96 672 -32
WIRE 672 96 640 96
WIRE 704 96 672 96
WIRE 576 112 528 112
WIRE -576 144 -576 96
WIRE 272 144 48 144
WIRE -336 160 -336 96
WIRE 880 176 864 176
WIRE 48 208 48 144
WIRE 80 208 48 208
WIRE 864 208 864 176
WIRE 864 208 832 208
WIRE 272 224 144 224
WIRE 336 224 272 224
WIRE 528 224 528 112
WIRE 528 224 416 224
WIRE 560 224 528 224
WIRE 704 224 640 224
WIRE 768 224 704 224
WIRE -16 240 -16 160
WIRE 80 240 -16 240
WIRE 864 240 832 240
WIRE 880 240 864 240
WIRE 1008 240 960 240
WIRE 1008 256 1008 240
WIRE -576 272 -576 224
WIRE -448 272 -576 272
WIRE -336 272 -336 240
WIRE -336 272 -448 272
WIRE -448 320 -448 272
WIRE 704 336 704 224
WIRE 864 336 864 240
WIRE 864 336 704 336
FLAG 704 96 vo
IOPIN 704 96 Out
FLAG -240 -288 Vcc+
FLAG 112 256 Vcc-
FLAG 128 0 Vcc+
FLAG 128 -64 Vcc-
FLAG 112 192 Vcc+
FLAG 608 64 Vcc+
FLAG 608 128 Vcc-
FLAG -112 -224 Vcc-
FLAG -304 -176 0
FLAG -112 -192 0
FLAG -16 0 V22
IOPIN -16 0 In
FLAG -384 96 V22
IOPIN -384 96 In
FLAG -544 96 V11
IOPIN -544 96 In
FLAG -16 160 V11
IOPIN -16 160 In
FLAG 800 256 Vcc+
FLAG 800 192 Vcc-
FLAG 880 176 Vcc+
FLAG 1008 256 0
FLAG -448 320 0
FLAG -432 -128 Vcc+
SYMBOL LM358 112 160 R0
SYMATTR InstName U1
SYMBOL LM358 128 32 M180
SYMATTR InstName U2
SYMBOL LM358 608 32 R0
SYMATTR InstName U3
SYMBOL res 256 -32 R0
SYMATTR InstName R10
SYMATTR Value 25k
SYMBOL res 256 48 R0
SYMATTR InstName R
SYMATTR Value 1500.9
SYMBOL res 256 128 R0
SYMATTR InstName R1
SYMATTR Value 25k
SYMBOL res 448 -48 R90
WINDOW 0 0 56 VBottom 2
WINDOW 3 32 56 VTop 2
SYMATTR InstName R2
SYMATTR Value 1k
SYMBOL res 432 208 R90
WINDOW 0 0 56 VBottom 2
WINDOW 3 32 56 VTop 2
SYMATTR InstName R20
SYMATTR Value 1k
SYMBOL res 656 -48 R90
WINDOW 0 0 56 VBottom 2
WINDOW 3 32 56 VTop 2
SYMATTR InstName R30
SYMATTR Value 17k
SYMBOL voltage -240 -272 R0
WINDOW 123 0 0 Left 0
WINDOW 39 0 0 Left 0
SYMATTR InstName V10
SYMATTR Value 5
SYMBOL res 656 208 R90
WINDOW 0 0 56 VBottom 2
WINDOW 3 32 56 VTop 2
SYMATTR InstName R3
SYMATTR Value 17k
SYMBOL res -592 -64 R0
SYMATTR InstName R4
SYMATTR Value 1k
SYMBOL res -352 -64 R0
SYMATTR InstName R5
SYMATTR Value 1k
SYMBOL res -352 144 R0
SYMATTR InstName R6
SYMATTR Value {Rp}
SYMBOL res -592 128 R0
SYMATTR InstName R7
SYMATTR Value 250
SYMBOL LM358 800 288 R180
SYMATTR InstName U4
SYMBOL res 976 224 R90
WINDOW 0 0 56 VBottom 2
WINDOW 3 32 56 VTop 2
SYMATTR InstName R8
SYMATTR Value 36.3
TEXT 120 -264 Left 2 !.tran 0 1 0
TEXT -384 -416 Left 2 ;Alimentación de los amplificadores
TEXT 120 -216 Left 2 !.step param Rp 248.439 250.46 0.25
RECTANGLE Normal 688 272 16 -96 2
CIRCLE Normal 16 -96 -368 -384 2
